@<TRIPOS>MOLECULE
LIG
   17    17     1     0     0
SMALL
bcc


@<TRIPOS>ATOM
      1 C1          -1.8240    14.3560   -17.1230 ca         1 LIG      -0.133900
      2 C2          -2.0350    15.7260   -17.0730 ca         1 LIG      -0.102000
      3 C3          -1.7370    16.4360   -15.9180 ca         1 LIG      -0.134000
      4 C4          -1.2460    15.7890   -14.7950 ca         1 LIG      -0.119000
      5 C5          -1.0200    14.4340   -14.8430 ca         1 LIG      -0.134000
      6 C6          -1.3080    13.7280   -15.9980 ca         1 LIG      -0.102000
      7 C           -2.1380    13.5780   -18.3510 ce         1 LIG       0.652800
      8 N1          -2.8170    14.0630   -19.3050 n2         1 LIG      -0.828100
      9 N2          -1.7420    12.3150   -18.4490 nv         1 LIG      -0.960800
     10 H           -2.4140    16.2190   -17.8970 ha         1 LIG       0.139500
     11 H1          -1.8830    17.4570   -15.8950 ha         1 LIG       0.134500
     12 H2          -1.0520    16.3190   -13.9310 ha         1 LIG       0.133000
     13 H3          -0.6360    13.9440   -14.0200 ha         1 LIG       0.134500
     14 H4          -1.1350    12.7110   -16.0230 ha         1 LIG       0.139500
     15 H5          -3.0050    13.5170   -20.1030 hn         1 LIG       0.382400
     16 H6          -1.9480    11.7960   -19.2600 hn         1 LIG       0.399300
     17 H7          -1.2430    11.8970   -17.7110 hn         1 LIG       0.399300
@<TRIPOS>BOND
     1     1     2 ar  
     2     1     6 ar  
     3     1     7 1   
     4     2     3 ar  
     5     2    10 1   
     6     3     4 ar  
     7     3    11 1   
     8     4     5 ar  
     9     4    12 1   
    10     5     6 ar  
    11     5    13 1   
    12     6    14 1   
    13     7     8 2   
    14     7     9 1   
    15     8    15 1   
    16     9    16 1   
    17     9    17 1   
@<TRIPOS>SUBSTRUCTURE
     1 LIG         1 TEMP              0 ****  ****    0 ROOT
